No_EVs/Output_No_EVs/output_current_1.csv
# Output_case1\output_current_1.csv run at 2000-01-01 00:01:00 EST on 907 links
link_name,currA_mag,currA_angle,currB_mag,currB_angle,currC_mag,currC_angle
Source_Impedance,0.166895,-0.384961,0.136221,3.824525,0.156510,1.889304
TR1,0.166895,-0.384961,0.136221,3.824525,0.156510,1.889304
LINE1,4.916990,-0.841189,3.888852,3.347451,3.307630,1.253214
LINE2,4.916990,-0.841189,3.888852,3.347451,3.307630,1.253214
LINE3,4.916990,-0.841189,3.888852,3.347451,3.307630,1.253214
LINE4,4.916990,-0.841189,3.888852,3.347451,3.307630,1.253214
LINE5,4.916990,-0.841189,3.888852,3.347451,3.307630,1.253214
LINE6,4.916990,-0.841189,3.888852,3.347451,3.307630,1.253214
LINE7,4.916990,-0.841189,3.888852,3.347451,3.307630,1.253214
LINE8,4.916990,-0.841189,3.888852,3.347451,3.307630,1.253214
LINE9,4.916990,-0.841189,3.888852,3.347451,3.307630,1.253214
LINE10,4.916990,-0.841189,3.888852,3.347451,3.307630,1.253214
LINE11,4.916990,-0.841189,3.888852,3.347451,3.307630,1.253214
LINE12,4.916990,-0.841189,3.888852,3.347451,3.307630,1.253214
LINE13,4.916990,-0.841189,3.888852,3.347451,3.307630,1.253214
LINE14,4.916990,-0.841189,3.888852,3.347451,3.307630,1.253214
LINE15,0.000000,0.760466,0.000000,3.811399,0.000000,1.563137
LINE16,4.916990,-0.841189,3.888852,3.347451,3.307630,1.253214
LINE17,0.000000,2.331263,0.000000,-0.810330,0.000000,1.561391
LINE18,4.916990,-0.841189,3.888852,3.347451,3.307630,1.253214
LINE19,0.000000,2.331263,0.000000,-0.810330,0.000000,1.560308
LINE20,4.916990,-0.841189,3.888852,3.347451,3.307630,1.253214
LINE21,0.000000,2.133867,0.000000,-0.810330,0.000000,1.559113
LINE22,4.916990,-0.841189,3.888852,3.347451,3.307630,1.253214
LINE23,0.000000,0.618569,0.000000,4.687457,0.000000,1.558006
LINE24,4.916990,-0.841189,3.888852,3.347451,3.307630,1.253214
LINE25,0.000000,-0.024932,0.000000,4.687457,0.000000,1.557406
LINE26,0.768293,-0.841294,0.000000,-0.366163,0.000000,1.495757
LINE27,4.148697,-0.841170,3.888852,3.347451,3.307630,1.253214
LINE28,0.000000,0.099423,0.000000,4.687457,0.000000,1.555883
LINE29,0.150316,-0.841297,0.000000,3.061086,0.000000,1.623874
LINE30,0.617976,-0.841294,0.000000,-0.367959,0.000000,1.497586
LINE31,4.148697,-0.841170,3.888852,3.347451,3.307630,1.253214
LINE32,0.000000,-0.269911,0.000000,4.377754,0.000000,1.556076
LINE33,0.150316,-0.841297,0.000000,-0.852747,0.000000,1.543284
LINE34,0.617976,-0.841294,0.000000,0.054248,0.000000,1.440854
LINE35,0.000000,0.607951,0.471831,3.347460,0.000000,4.703380
LINE36,4.148697,-0.841170,3.417021,3.347450,3.307630,1.253214
LINE37,0.000000,-0.316389,0.000000,4.421205,0.000000,1.556824
LINE38,0.617976,-0.841294,0.000000,-0.000159,0.000000,1.542450
LINE39,0.000000,0.868612,0.233828,3.347460,0.000000,-1.570692
LINE40,0.000000,0.350994,0.238003,3.347460,0.000000,1.523246
LINE41,4.148697,-0.841170,3.417021,3.347450,3.307630,1.253214
LINE42,0.000000,0.915693,0.000000,0.615991,0.000000,3.957028
LINE43,0.000000,-0.668433,0.000000,4.687457,0.000000,1.556223
LINE44,0.617976,-0.841294,0.000000,0.426385,0.000000,1.574099
LINE45,0.000000,1.426704,0.233828,3.347460,0.000000,4.707561
LINE46,0.000000,-0.448096,0.238003,3.347460,0.000000,1.565934
LINE47,4.148697,-0.841170,3.417021,3.347450,3.307630,1.253214
LINE48,0.000000,0.850570,0.000000,0.633166,0.000000,4.032286
LINE49,0.000000,-0.668433,0.000000,4.168311,0.000000,1.553213
LINE50,0.617976,-0.841294,0.000000,0.397672,0.000000,1.449975
LINE51,0.000000,1.827367,0.233828,3.347460,0.000000,4.698477
LINE52,4.148697,-0.841170,3.417021,3.347450,3.307630,1.253214
LINE53,0.000000,-1.509255,0.000000,-0.804761,0.000000,-0.036850
LINE54,0.000000,0.784454,0.000000,0.632859,0.000000,4.180486
LINE55,0.000000,-1.377059,0.000000,4.147038,0.000000,1.546383
LINE56,0.617976,-0.841294,0.000000,0.274301,0.000000,1.789423
LINE57,0.000000,1.644060,0.233828,3.347460,0.000000,-1.545512
LINE58,4.148697,-0.841170,3.417021,3.347450,3.307630,1.253214
LINE59,0.000000,4.116082,0.000000,-1.381995,0.000000,-0.143258
LINE60,0.000000,0.468528,0.000000,0.637999,0.000000,4.246911
LINE61,0.000000,4.468788,0.000000,4.522308,0.000000,1.545202
LINE62,0.617976,-0.841294,0.000000,-0.305368,0.000000,-1.368849
LINE63,0.000000,0.651291,0.233828,3.347460,0.000000,4.700336
LINE64,3.559794,-0.841159,3.417021,3.347450,3.307630,1.253214
LINE65,0.588904,-0.841235,0.000000,-0.261618,0.000000,1.223230
LINE66,0.000000,4.213797,0.000000,-0.440629,0.000000,-0.901676
LINE67,0.000000,0.551632,0.000000,0.593393,0.000000,-1.439811
LINE68,0.000000,4.687457,0.000000,4.507604,0.000000,1.546068
LINE69,0.617976,-0.841294,0.000000,3.008179,0.000000,4.668496
LINE70,0.000000,1.631862,0.233828,3.347460,0.000000,4.710432
LINE71,3.559794,-0.841159,3.417021,3.347450,3.307630,1.253214
LINE72,0.204654,-0.841236,0.000000,-0.949780,0.000000,-1.455125
LINE73,0.384250,-0.841235,0.000000,-0.304166,0.000000,1.267522
LINE74,0.000000,-0.737821,0.000000,4.445582,0.000000,2.097996
LINE75,0.000000,0.807430,0.000000,0.496451,0.000000,-1.196417
LINE76,0.000000,4.644930,0.000000,4.424462,0.000000,1.552067
LINE77,0.000000,2.437761,0.233828,3.347460,0.000000,-1.543021
LINE78,3.559794,-0.841159,3.417021,3.347450,3.307630,1.253214
LINE79,0.000000,-1.492219,0.000000,-1.215698,0.000000,2.541294
LINE80,0.000000,0.742699,0.000000,0.534728,0.000000,-1.118311
LINE81,0.000000,4.566833,0.000000,4.393223,0.000000,1.551015
LINE82,0.000000,-0.076131,0.233828,3.347460,0.000000,4.673376
LINE83,3.559794,-0.841159,3.417021,3.347450,3.307630,1.253214
LINE84,0.000000,-0.600347,0.000000,3.607213,0.000000,3.125815
LINE85,0.000000,0.732239,0.000000,0.545516,0.000000,-1.122161
LINE86,0.000000,4.637499,0.000000,4.282565,0.000000,1.551950
LINE87,3.559794,-0.841159,3.417021,3.347450,3.307630,1.253214
LINE88,0.000000,2.477132,0.000000,-0.531356,0.000000,3.798961
LINE89,0.000000,0.763297,0.000000,0.517002,0.000000,-1.114920
LINE90,0.000000,4.687457,0.000000,4.554906,0.000000,1.540835
LINE91,3.559794,-0.841159,3.417021,3.347450,3.307630,1.253214
LINE92,0.000000,1.114855,0.000000,0.472484,0.000000,-1.041069
LINE93,0.000000,4.687457,0.000000,3.902059,0.000000,1.551602
LINE94,3.559794,-0.841159,3.417021,3.347450,3.307630,1.253214
LINE95,0.000000,0.518781,0.000000,0.514729,0.000000,-0.980746
LINE96,0.000000,0.000000,0.000000,0.220047,0.000000,4.709914
LINE97,3.559794,-0.841159,3.417021,3.347450,3.307630,1.253214
LINE98,0.000000,0.709925,0.000000,0.161785,0.000000,-0.741983
LINE99,0.000000,1.545864,0.000000,-0.024932,0.000000,-1.561074
LINE100,3.559794,-0.841159,3.417021,3.347450,3.307630,1.253214
LINE101,0.000000,0.873670,0.000000,-0.034929,0.000000,-1.294196
LINE102,0.000000,0.000000,0.000000,0.000000,0.000000,-0.024932
LINE103,0.363401,-0.841219,0.609759,3.347465,0.442637,1.253193
LINE104,3.196393,-0.841152,2.807263,3.347447,2.864993,1.253217
LINE105,0.000000,0.861795,0.000000,-0.068574,0.000000,-1.207566
LINE106,0.363401,-0.841219,0.609759,3.347465,0.442637,1.253193
LINE107,3.196393,-0.841152,2.807263,3.347447,2.864993,1.253217
LINE108,0.000000,1.158794,0.000000,0.040706,0.000000,-1.389997
LINE109,0.363401,-0.841219,0.609759,3.347465,0.442637,1.253193
LINE110,3.196393,-0.841152,2.807263,3.347447,2.864993,1.253217
LINE111,0.000000,1.196065,0.000000,0.016909,0.000000,-1.358615
LINE112,0.363401,-0.841219,0.609759,3.347465,0.442637,1.253193
LINE113,3.196393,-0.841152,2.807263,3.347447,2.864993,1.253217
LINE114,0.000000,1.193671,0.000000,0.018172,0.000000,-1.362636
LINE115,0.363401,-0.841219,0.609759,3.347465,0.442637,1.253193
LINE116,0.213035,-0.841214,0.371715,3.347471,0.455184,1.253202
LINE117,2.983358,-0.841148,2.435548,3.347443,2.409809,1.253220
LINE118,0.000000,1.162382,0.000000,0.002240,0.000000,-1.355688
LINE119,0.363401,-0.841219,0.609759,3.347465,0.442637,1.253193
LINE120,0.000000,1.978272,0.000000,0.498346,0.000000,4.693091
LINE121,0.213035,-0.841214,0.371715,3.347471,0.455184,1.253202
LINE122,2.983358,-0.841148,2.435548,3.347443,2.409809,1.253220
LINE123,0.000000,1.155678,0.000000,-0.025667,0.000000,-1.333181
LINE124,0.363401,-0.841219,0.609759,3.347465,0.442637,1.253193
LINE125,0.000000,2.133867,0.000000,0.563071,0.000000,4.693499
LINE126,0.213035,-0.841214,0.371715,3.347471,0.455184,1.253202
LINE127,2.983358,-0.841148,2.435548,3.347443,2.409809,1.253220
LINE128,0.000000,1.194125,0.000000,-0.023756,0.000000,-1.290428
LINE129,0.363401,-0.841219,0.609759,3.347465,0.442637,1.253193
LINE130,0.000000,2.220605,0.000000,0.515488,0.000000,4.697721
LINE131,0.213035,-0.841214,0.000000,-1.549523,0.000000,4.349449
LINE132,0.000000,1.275716,0.371715,3.347471,0.455184,1.253202
LINE133,2.983358,-0.841148,2.435548,3.347443,2.409809,1.253220
LINE134,0.000000,1.206882,0.000000,-0.019652,0.000000,-1.258275
LINE135,0.363401,-0.841219,0.609759,3.347465,0.442637,1.253193
LINE136,0.000000,2.220605,0.000000,0.318092,0.000000,4.694848
LINE137,0.213035,-0.841214,0.000000,-1.541509,0.000000,4.083812
LINE138,0.000000,1.274198,0.371715,3.347471,0.455184,1.253202
LINE139,2.983358,-0.841148,2.435548,3.347443,2.409809,1.253220
LINE140,0.000000,1.183665,0.000000,-0.009845,0.000000,-1.285701
LINE141,0.363401,-0.841219,0.609759,3.347465,0.442637,1.253193
LINE142,0.000000,2.528658,0.000000,0.487458,0.000000,4.688000
LINE143,0.213035,-0.841214,0.000000,-1.489205,0.000000,4.238699
LINE144,0.000000,1.280366,0.371715,3.347471,0.455184,1.253202
LINE145,2.983358,-0.841148,2.435548,3.347443,2.409809,1.253220
LINE146,0.000000,1.024619,0.000000,-0.173816,0.000000,-1.213122
LINE147,0.363401,-0.841219,0.609759,3.347465,0.442637,1.253193
LINE148,0.000000,2.558061,0.000000,0.618569,0.000000,4.687518
LINE149,0.213035,-0.841214,0.000000,-1.518525,0.000000,4.346859
LINE150,0.000000,1.062706,0.000000,3.004913,0.455184,1.253202
LINE151,0.000000,3.303200,0.371715,3.347471,0.000000,4.650031
LINE152,2.983358,-0.841148,2.435548,3.347443,2.409809,1.253220
LINE153,0.000000,0.325620,0.000000,0.013228,0.000000,-1.015393
LINE154,0.363401,-0.841219,0.609759,3.347465,0.442637,1.253193
LINE155,0.000000,2.951512,0.000000,0.693898,0.000000,4.682278
LINE156,0.213035,-0.841214,0.000000,-1.162413,0.000000,3.991066
LINE157,0.000000,1.056164,0.000000,3.002328,0.455184,1.253202
LINE158,0.000000,3.274419,0.371715,3.347471,0.000000,4.662003
LINE159,2.983358,-0.841148,2.435548,3.347443,2.409809,1.253220
LINE160,0.000000,2.595835,0.000000,0.346419,0.000000,0.094733
LINE161,0.000000,2.485599,0.204642,3.347465,0.000000,4.623566
LINE162,0.363401,-0.841219,0.405116,3.347466,0.442637,1.253193
LINE163,0.000000,2.974764,0.000000,0.438716,0.000000,4.681866
LINE164,0.213035,-0.841214,0.000000,-1.283453,0.000000,2.288229
LINE165,0.000000,1.062325,0.000000,3.004500,0.455184,1.253202
LINE166,0.000000,3.265357,0.371715,3.347471,0.000000,4.671754
LINE167,2.983358,-0.841148,2.435548,3.347443,2.409809,1.253220
LINE168,0.000000,0.941892,0.000000,3.022748,0.000000,3.957473
LINE169,0.000000,2.842771,0.204642,3.347465,0.000000,4.086030
LINE170,0.363401,-0.841219,0.405116,3.347466,0.442637,1.253193
LINE171,0.000000,2.919265,0.000000,0.438716,0.000000,4.693365
LINE172,0.213035,-0.841214,0.000000,-1.341050,0.000000,3.825253
LINE173,0.000000,1.125147,0.000000,2.959268,0.000000,0.249434
LINE174,0.000000,-1.086563,0.000000,-1.045841,0.455184,1.253202
LINE175,0.000000,3.122862,0.371715,3.347471,0.000000,4.624713
LINE176,2.983358,-0.841148,2.435548,3.347443,2.409809,1.253220
LINE177,0.000000,3.420921,0.204642,3.347465,0.000000,3.936085
LINE178,0.363401,-0.841219,0.405116,3.347466,0.000000,4.590374
LINE179,0.000000,1.379693,0.000000,1.935422,0.442637,1.253193
LINE180,0.000000,3.116661,0.000000,1.926371,0.000000,4.687579
LINE181,0.213035,-0.841214,0.000000,-0.959004,0.000000,4.320824
LINE182,0.000000,1.087116,0.000000,2.956787,0.000000,0.280919
LINE183,0.000000,-1.081320,0.000000,-1.143787,0.455184,1.253202
LINE184,0.000000,3.269995,0.371715,3.347471,0.000000,4.685459
LINE185,2.983358,-0.841148,2.435548,3.347443,2.409809,1.253220
LINE186,0.363401,-0.841219,0.405116,3.347466,0.000000,4.446799
LINE187,0.000000,1.378327,0.000000,1.948184,0.442637,1.253193
LINE188,0.000000,2.871682,0.000000,2.331263,0.000000,4.694435
LINE189,0.213035,-0.841214,0.000000,-0.942054,0.000000,4.270455
LINE190,0.000000,2.117732,0.000000,-0.113027,0.000000,4.492188
LINE191,0.000000,0.988777,0.000000,2.976675,0.000000,0.339033
LINE192,0.000000,-1.139438,0.000000,-1.096066,0.455184,1.253202
LINE193,0.000000,3.268000,0.371715,3.347471,0.000000,4.680965
LINE194,2.983358,-0.841148,2.435548,3.347443,2.409809,1.253220
LINE195,0.363401,-0.841219,0.405116,3.347466,0.000000,4.452056
LINE196,0.000000,3.040187,0.000000,0.374146,0.221318,1.253193
LINE197,0.000000,1.258199,0.000000,1.985390,0.221319,1.253194
LINE198,0.000000,2.871682,0.000000,1.545864,0.000000,-1.540547
LINE199,0.213035,-0.841214,0.000000,-0.974607,0.000000,4.384586
LINE200,0.000000,3.726414,0.000000,0.111571,0.000000,0.551204
LINE201,0.000000,0.603697,0.000000,2.910540,0.000000,0.424288
LINE202,0.000000,-1.299277,0.000000,-0.814330,0.455184,1.253202
LINE203,0.000000,3.292861,0.371715,3.347471,0.000000,4.675753
LINE204,2.983358,-0.841148,2.435548,3.347443,2.409809,1.253220
LINE205,0.363401,-0.841219,0.000000,3.427945,0.000000,1.813715
LINE206,0.000000,0.360909,0.405116,3.347466,0.000000,4.323821
LINE207,0.000000,3.687982,0.000000,2.853280,0.221318,1.253193
LINE208,0.000000,1.144053,0.000000,1.631640,0.221319,1.253194
LINE209,0.000000,2.653013,0.000000,1.545864,0.000000,4.700986
LINE210,0.213035,-0.841214,0.000000,-1.067013,0.000000,4.380114
LINE211,0.000000,0.936074,0.000000,2.882166,0.000000,-0.210384
LINE212,0.000000,-1.395504,0.000000,-0.481499,0.455184,1.253202
LINE213,0.000000,3.229753,0.371715,3.347471,0.000000,4.665661
LINE214,2.983358,-0.841148,2.435548,3.347443,2.409809,1.253220
LINE215,0.363401,-0.841219,0.000000,0.262510,0.000000,4.360045
LINE216,0.000000,0.374858,0.405116,3.347466,0.000000,4.444407
LINE217,0.000000,0.442283,0.000000,3.284919,0.221319,1.253194
LINE218,0.000000,0.000000,0.000000,0.000000,0.000000,3.116661
LINE219,0.213035,-0.841214,0.000000,-0.954157,0.000000,4.394653
LINE220,0.000000,0.315990,0.000000,2.912809,0.000000,0.167202
LINE221,0.000000,-1.454173,0.000000,-0.579148,0.455184,1.253202
LINE222,0.000000,3.236109,0.371715,3.347471,0.000000,4.633639
LINE223,2.983358,-0.841148,2.435548,3.347443,2.409809,1.253220
LINE224,0.363401,-0.841219,0.000000,0.311008,0.000000,-1.557133
LINE225,0.000000,1.094978,0.405116,3.347466,0.000000,4.199090
LINE226,0.000000,-0.060902,0.000000,3.392547,0.221319,1.253194
LINE227,0.213035,-0.841214,0.000000,-1.119103,0.000000,4.418874
LINE228,0.000000,1.327950,0.000000,2.819288,0.000000,-0.624364
LINE229,0.000000,-1.309928,0.000000,-0.603454,0.455184,1.253202
LINE230,0.000000,3.243820,0.371715,3.347471,0.000000,4.650208
LINE231,2.983358,-0.841148,2.435548,3.347443,2.409809,1.253220
LINE232,0.000000,0.310435,0.405116,3.347466,0.000000,1.600988
LINE233,0.000000,3.597139,0.000000,3.597139,0.000000,-1.249580
LINE234,0.000000,0.274809,0.000000,3.352000,0.221319,1.253194
LINE235,0.213035,-0.841214,0.000000,3.927371,0.000000,1.626389
LINE236,0.000000,0.528665,0.000000,2.899918,0.000000,-0.151738
LINE237,0.000000,-1.180490,0.000000,-0.832023,0.455184,1.253202
LINE238,0.000000,3.260441,0.371715,3.347471,0.000000,4.667336
LINE239,2.983358,-0.841148,2.435548,3.347443,2.409809,1.253220
LINE240,0.000000,0.248509,0.405116,3.347466,0.000000,2.626624
LINE241,0.000000,0.255546,0.000000,3.910643,0.221319,1.253194
LINE242,0.213035,-0.841214,0.000000,3.739083,0.000000,1.555013
LINE243,0.000000,-0.606465,0.000000,2.960286,0.000000,1.009348
LINE244,0.000000,-1.283587,0.000000,-0.979958,0.455184,1.253202
LINE245,0.000000,3.182782,0.371715,3.347471,0.000000,-1.569385
LINE246,2.983358,-0.841148,2.435548,3.347443,2.409809,1.253220
LINE247,0.000000,0.722932,0.200470,3.347466,0.000000,1.572788
LINE248,0.000000,1.751459,0.204646,3.347466,0.000000,1.525613
LINE249,0.000000,3.086453,0.000000,0.656371,0.221319,1.253194
LINE250,0.213035,-0.841214,0.000000,3.977277,0.000000,1.481071
LINE251,0.000000,0.592137,0.000000,2.994220,0.000000,4.379973
LINE252,0.000000,-1.440749,0.000000,-0.799007,0.455184,1.253202
LINE253,0.000000,3.177325,0.371715,3.347471,0.000000,4.674953
LINE254,0.213058,-0.841203,0.000000,0.022797,0.000000,3.951567
LINE255,2.770300,-0.841143,2.435548,3.347443,2.409809,1.253220
LINE256,0.000000,-0.550650,0.000000,3.595927,0.221319,1.253194
LINE257,0.213035,-0.841214,0.000000,3.432911,0.000000,1.923844
LINE258,0.000000,1.314691,0.000000,3.206972,0.000000,2.835852
LINE259,0.000000,4.622617,0.000000,-0.758155,0.455184,1.253202
LINE260,0.000000,3.206918,0.371715,3.347471,0.000000,-1.555060
LINE261,0.213058,-0.841203,0.000000,0.006814,0.000000,3.858387
LINE262,2.770300,-0.841143,2.435548,3.347443,2.409809,1.253220
LINE263,0.000000,-0.961755,0.000000,3.635923,0.221319,1.253194
LINE264,0.213035,-0.841214,0.000000,4.664312,0.000000,1.591904
LINE265,0.000000,0.922698,0.000000,3.204884,0.000000,1.969836
LINE266,0.000000,4.665462,0.000000,-0.687059,0.455184,1.253202
LINE267,0.000000,1.746111,0.183769,3.347472,0.000000,-1.363027
LINE268,0.000000,3.077788,0.187945,3.347471,0.000000,4.646384
LINE269,0.213058,-0.841203,0.000000,-0.036401,0.000000,4.201487
LINE270,0.000000,3.680460,0.000000,4.533733,0.208811,1.253217
LINE271,2.770300,-0.841143,2.435548,3.347443,2.200998,1.253221
LINE272,0.213035,-0.841214,0.000000,-0.400007,0.000000,4.396746
LINE273,0.000000,0.854027,0.000000,3.309035,0.000000,0.292960
LINE274,0.000000,4.444029,0.000000,-0.311650,0.455184,1.253202
LINE275,0.000000,2.132254,0.183769,3.347472,0.000000,1.536474
LINE276,0.000000,3.163105,0.187945,3.347471,0.000000,-1.509284
LINE277,0.213058,-0.841203,0.000000,0.010081,0.000000,4.331746
LINE278,0.000000,3.811822,0.000000,4.553602,0.208811,1.253217
LINE279,2.770300,-0.841143,2.435548,3.347443,2.200998,1.253221
LINE280,0.213035,-0.841214,0.000000,-1.083142,0.000000,1.330414
LINE281,0.000000,0.421073,0.000000,-0.877605,0.000000,2.074496
LINE282,0.000000,-1.318587,0.000000,-0.427257,0.455184,1.253202
LINE283,0.000000,3.183432,0.187945,3.347471,0.000000,-1.526277
LINE284,0.213058,-0.841203,0.000000,0.012712,0.000000,4.397984
LINE285,0.000000,4.100883,0.000000,4.320328,0.208811,1.253217
LINE286,1.278597,-0.841132,0.822976,3.347424,0.442678,1.253223
LINE287,1.491704,-0.841153,1.612572,3.347452,1.758320,1.253220
LINE288,0.213035,-0.841214,0.000000,3.336912,0.000000,-1.448287
LINE289,0.000000,2.249877,0.000000,-0.428755,0.000000,0.616347
LINE290,0.000000,2.968989,0.000000,-0.913875,0.225504,1.253203
LINE291,0.000000,-1.197894,0.000000,-0.179675,0.229679,1.253202
LINE292,0.000000,2.851052,0.187945,3.347471,0.000000,4.676094
LINE293,0.213058,-0.841203,0.000000,-0.000423,0.000000,4.397878
LINE294,0.000000,4.269992,0.000000,4.084780,0.208811,1.253217
LINE295,1.278597,-0.841132,0.822976,3.347424,0.442678,1.253223
LINE296,1.491704,-0.841153,1.612572,3.347452,1.758320,1.253220
LINE297,0.000000,1.799641,0.000000,-0.733589,0.225504,1.253203
LINE298,0.000000,4.164075,0.000000,0.355750,0.229679,1.253202
LINE299,0.000000,2.913170,0.187945,3.347471,0.000000,1.725961
LINE300,0.213058,-0.841203,0.000000,-0.007738,0.000000,4.389671
LINE301,0.000000,4.261856,0.000000,4.063694,0.208811,1.253217
LINE302,1.278597,-0.841132,0.822976,3.347424,0.442678,1.253223
LINE303,1.491704,-0.841153,1.612572,3.347452,1.758320,1.253220
LINE304,0.000000,3.031158,0.000000,0.514921,0.225504,1.253203
LINE305,0.000000,3.141178,0.000000,3.470847,0.229679,1.253202
LINE306,0.000000,3.502048,0.187945,3.347471,0.000000,-1.494221
LINE307,0.213058,-0.841203,0.000000,-0.041524,0.000000,4.428363
LINE308,0.000000,4.000524,0.000000,3.695395,0.208811,1.253217
LINE309,1.278597,-0.841132,0.822976,3.347424,0.442678,1.253223
LINE310,1.491704,-0.841153,1.612572,3.347452,1.758320,1.253220
LINE311,0.000000,3.536413,0.000000,-0.856965,0.225504,1.253203
LINE312,0.000000,2.986774,0.000000,1.462776,0.229679,1.253202
LINE313,0.000000,-1.029626,0.187945,3.347471,0.000000,4.516951
LINE314,0.213058,-0.841203,0.000000,-0.008403,0.000000,4.437775
LINE315,0.000000,3.899400,0.000000,3.627725,0.208811,1.253217
LINE316,0.259026,-0.841191,0.000000,1.648959,0.000000,1.544077
LINE317,1.019571,-0.841117,0.822976,3.347424,0.442678,1.253223
LINE318,1.491704,-0.841153,1.612572,3.347452,1.758320,1.253220
LINE319,0.000000,1.347345,0.000000,3.319374,0.225504,1.253203
LINE320,0.000000,2.965246,0.000000,0.343016,0.229679,1.253202
LINE321,0.213058,-0.841203,0.000000,-0.030267,0.000000,4.477180
LINE322,0.000000,3.830512,0.000000,-1.145803,0.208811,1.253217
LINE323,0.259026,-0.841191,0.000000,1.553853,0.000000,1.541854
LINE324,1.019571,-0.841117,0.822976,3.347424,0.442678,1.253223
LINE325,1.491704,-0.841153,1.612572,3.347452,1.758320,1.253220
LINE326,0.000000,3.048410,0.000000,0.240208,0.229679,1.253202
LINE327,0.213058,-0.841203,0.000000,0.029853,0.000000,4.500125
LINE328,0.000000,-0.457005,0.000000,3.861004,0.208811,1.253217
LINE329,0.259026,-0.841191,0.000000,1.542021,0.000000,1.549644
LINE330,0.000000,0.823845,0.000000,2.791526,0.225517,1.253224
LINE331,1.019571,-0.841117,0.822976,3.347424,0.217161,1.253223
LINE332,1.491704,-0.841153,1.612572,3.347452,1.758320,1.253220
LINE333,0.213058,-0.841203,0.000000,0.070889,0.000000,4.504635
LINE334,0.000000,4.357808,0.000000,2.774366,0.208811,1.253217
LINE335,0.259026,-0.841191,0.000000,1.608804,0.000000,1.555770
LINE336,0.000000,1.220525,0.000000,0.652127,0.225517,1.253224
LINE337,0.000000,-0.908485,0.225566,3.347441,0.000000,1.628780
LINE338,1.019571,-0.841117,0.597410,3.347417,0.217161,1.253223
LINE339,1.491704,-0.841153,1.612572,3.347452,1.758320,1.253220
LINE340,0.213058,-0.841203,0.000000,0.067874,0.000000,4.486778
LINE341,0.000000,3.196626,0.000000,2.783423,0.208811,1.253217
LINE342,0.142046,-0.841191,0.000000,3.229642,0.000000,4.624295
LINE343,0.116980,-0.841191,0.000000,1.544849,0.000000,1.547281
LINE344,0.000000,-0.904871,0.225566,3.347441,0.000000,1.629280
LINE345,1.019571,-0.841117,0.597410,3.347417,0.217161,1.253223
LINE346,1.491704,-0.841153,1.612572,3.347452,1.758320,1.253220
LINE347,0.213058,-0.841203,0.000000,-0.003886,0.000000,4.431132
LINE348,0.142046,-0.841191,0.000000,4.457102,0.000000,-1.543375
LINE349,0.116980,-0.841191,0.000000,1.473417,0.000000,1.589103
LINE350,0.000000,-0.995236,0.225566,3.347441,0.000000,1.637302
LINE351,1.019571,-0.841117,0.597410,3.347417,0.217161,1.253223
LINE352,1.491704,-0.841153,1.612572,3.347452,1.758320,1.253220
LINE353,0.213058,-0.841203,0.000000,0.116062,0.000000,4.523856
LINE354,0.116980,-0.841191,0.000000,1.327134,0.000000,1.607959
LINE355,0.000000,-1.311074,0.225566,3.347441,0.000000,1.662590
LINE356,1.019571,-0.841117,0.597410,3.347417,0.217161,1.253223
LINE357,1.491704,-0.841153,1.612572,3.347452,1.758320,1.253220
LINE358,0.213058,-0.841203,0.000000,0.138130,0.000000,4.509881
LINE359,0.116980,-0.841191,0.000000,1.248363,0.000000,1.589142
LINE360,0.000000,-1.508566,0.225566,3.347441,0.000000,4.445016
LINE361,1.019571,-0.841117,0.597410,3.347417,0.217161,1.253223
LINE362,1.491704,-0.841153,1.612572,3.347452,1.758320,1.253220
LINE363,0.213058,-0.841203,0.000000,1.455666,0.000000,4.512488
LINE364,0.116980,-0.841191,0.000000,2.250422,0.000000,1.738916
LINE365,0.000000,4.104888,0.225566,3.347441,0.000000,1.629647
LINE366,1.019571,-0.841117,0.597410,3.347417,0.217161,1.253223
LINE367,1.491704,-0.841153,1.612572,3.347452,1.758320,1.253220
LINE368,0.213058,-0.841203,0.000000,4.640127,0.000000,3.798534
LINE369,0.116980,-0.841191,0.000000,2.502990,0.000000,1.666891
LINE370,0.000000,-1.563517,0.225566,3.347441,0.000000,2.003749
LINE371,1.019571,-0.841117,0.597410,3.347417,0.217161,1.253223
LINE372,1.491704,-0.841153,1.612572,3.347452,1.758320,1.253220
LINE373,0.213058,-0.841203,0.000000,0.682028,0.000000,2.077327
LINE374,0.116980,-0.841191,0.000000,1.826389,0.000000,2.389381
LINE375,0.000000,-1.112866,0.225566,3.347441,0.000000,1.684253
LINE376,1.019571,-0.841117,0.597410,3.347417,0.217161,1.253223
LINE377,1.491704,-0.841153,1.612572,3.347452,1.532797,1.253220
LINE378,0.000000,4.289734,0.000000,3.076006,0.225523,1.253221
LINE379,0.213058,-0.841203,0.000000,-0.023046,0.000000,4.660758
LINE380,0.116980,-0.841191,0.000000,0.155508,0.000000,4.598235
LINE381,0.000000,-1.361051,0.225566,3.347441,0.000000,1.720500
LINE382,1.019571,-0.841117,0.597410,3.347417,0.217161,1.253223
LINE383,1.491704,-0.841153,1.612572,3.347452,1.532797,1.253220
LINE384,0.000000,-1.069987,0.000000,3.689614,0.225523,1.253221
LINE385,0.000000,3.584483,0.000000,2.719850,0.000000,4.674553
LINE386,0.213058,-0.841203,0.000000,0.251604,0.000000,2.112637
LINE387,0.116980,-0.841191,0.000000,3.896005,0.000000,4.699375
LINE388,0.000000,0.018858,0.225566,3.347441,0.000000,0.971594
LINE389,1.019571,-0.841117,0.597410,3.347417,0.217161,1.253223
LINE390,1.491704,-0.841153,1.612572,3.347452,1.532797,1.253220
LINE391,0.000000,-1.082275,0.000000,3.701287,0.225523,1.253221
LINE392,0.000000,3.589142,0.000000,2.728423,0.000000,4.675842
LINE393,0.000000,1.904015,0.225566,3.347441,0.000000,4.680816
LINE394,1.019571,-0.841117,0.597410,3.347417,0.217161,1.253223
LINE395,0.000000,3.685991,0.000000,3.732361,0.471938,1.253223
LINE396,1.491704,-0.841153,1.612572,3.347452,1.060859,1.253218
LINE397,0.000000,-1.160029,0.000000,3.557350,0.225523,1.253221
LINE398,0.000000,3.622809,0.000000,2.752913,0.000000,4.678296
LINE399,0.000000,0.286461,0.225566,3.347441,0.000000,4.701170
LINE400,1.019571,-0.841117,0.597410,3.347417,0.217161,1.253223
LINE401,0.000000,3.652520,0.000000,3.751784,0.471938,1.253223
LINE402,1.491704,-0.841153,1.612572,3.347452,1.060859,1.253218
LINE403,0.000000,-1.321070,0.000000,3.295172,0.225523,1.253221
LINE404,0.000000,4.006403,0.000000,2.838759,0.000000,4.686418
LINE405,0.000000,-0.635737,0.225566,3.347441,0.000000,1.619521
LINE406,1.019571,-0.841117,0.597410,3.347417,0.217161,1.253223
LINE407,0.000000,3.324993,0.000000,3.777985,0.471938,1.253223
LINE408,1.491704,-0.841153,1.612572,3.347452,1.060859,1.253218
LINE409,0.000000,-1.377211,0.000000,4.128193,0.000000,1.675789
LINE410,0.000000,4.423324,0.000000,3.292537,0.225523,1.253221
LINE411,0.000000,3.768167,0.000000,2.457501,0.000000,-1.529565
LINE412,1.019571,-0.841117,0.597410,3.347417,0.217161,1.253223
LINE413,0.000000,3.572554,0.000000,3.842775,0.471938,1.253223
LINE414,1.491704,-0.841153,1.612572,3.347452,1.060859,1.253218
LINE415,0.000000,-1.493587,0.000000,4.250533,0.000000,2.029153
LINE416,0.000000,-1.569581,0.000000,3.395409,0.225523,1.253221
LINE417,0.000000,4.219325,0.000000,2.544371,0.000000,-1.557483
LINE418,1.019571,-0.841117,0.597410,3.347417,0.217161,1.253223
LINE419,0.000000,3.487972,0.000000,3.584212,0.471938,1.253223
LINE420,1.491704,-0.841153,1.612572,3.347452,1.060859,1.253218
LINE421,0.000000,-1.506950,0.000000,4.092370,0.000000,1.409181
LINE422,0.000000,-1.415329,0.000000,3.355754,0.225523,1.253221
LINE423,0.000000,4.372236,0.000000,2.663929,0.000000,-1.545014
LINE424,1.019571,-0.841117,0.597410,3.347417,0.217161,1.253223
LINE425,0.000000,1.506155,0.000000,1.506155,0.000000,-1.562853
LINE426,0.000000,3.658778,0.000000,3.561353,0.471938,1.253223
LINE427,1.491704,-0.841153,1.612572,3.347452,1.060859,1.253218
LINE428,0.000000,-1.095606,0.000000,4.058067,0.000000,3.171723
LINE429,0.000000,-0.380444,0.000000,1.621455,0.225523,1.253221
LINE430,0.000000,4.358655,0.000000,2.682154,0.000000,-1.540566
LINE431,1.019571,-0.841117,0.597410,3.347417,0.217161,1.253223
LINE432,0.000000,-1.272502,0.000000,2.682808,0.000000,4.029198
LINE433,0.000000,3.649834,0.000000,3.590710,0.471938,1.253223
LINE434,1.491704,-0.841153,1.612572,3.347452,1.060859,1.253218
LINE435,0.000000,-1.384420,0.000000,4.244543,0.000000,4.246948
LINE436,0.000000,2.718591,0.000000,2.958187,0.225523,1.253221
LINE437,0.000000,4.649283,0.000000,2.576658,0.000000,-1.551563
LINE438,1.019571,-0.841117,0.597410,3.347417,0.217161,1.253223
LINE439,0.000000,1.903374,0.000000,-0.750402,0.000000,2.869131
LINE440,0.000000,3.730908,0.000000,3.525555,0.471938,1.253223
LINE441,1.491704,-0.841153,1.612572,3.347452,1.060859,1.253218
LINE442,0.000000,-1.093274,0.000000,4.191829,0.000000,2.454945
LINE443,0.000000,3.481255,0.000000,2.757577,0.225523,1.253221
LINE444,0.000000,4.183318,0.000000,2.798042,0.000000,-1.550582
LINE445,1.019571,-0.841117,0.597410,3.347417,0.217161,1.253223
LINE446,0.000000,0.171238,0.000000,3.500223,0.000000,1.168237
LINE447,0.000000,3.668794,0.000000,3.555961,0.471938,1.253223
LINE448,1.491704,-0.841153,1.612572,3.347452,1.060859,1.253218
LINE449,0.000000,-1.336314,0.000000,4.029162,0.000000,2.398060
LINE450,0.000000,2.608640,0.000000,0.923299,0.225523,1.253221
LINE451,0.000000,4.325763,0.000000,2.670807,0.000000,-1.544222
LINE452,1.019571,-0.841117,0.597410,3.347417,0.217161,1.253223
LINE453,0.000000,1.932402,0.000000,4.199539,0.000000,2.449468
LINE454,0.000000,3.864907,0.000000,3.551515,0.471938,1.253223
LINE455,1.491704,-0.841153,1.612572,3.347452,1.060859,1.253218
LINE456,0.000000,-0.806417,0.000000,3.917423,0.000000,1.936833
LINE457,0.000000,1.181927,0.000000,-0.569885,0.225523,1.253221
LINE458,0.000000,4.207964,0.000000,2.504359,0.000000,-1.542348
LINE459,0.819006,-0.841114,0.597410,3.347417,0.217161,1.253223
LINE460,0.000000,4.069235,0.000000,3.778093,0.000000,1.621211
LINE461,0.200564,-0.841133,0.000000,0.073899,0.000000,-1.508840
LINE462,0.000000,3.786911,0.000000,3.594117,0.471938,1.253223
LINE463,1.491704,-0.841153,1.612572,3.347452,1.060859,1.253218
LINE464,0.000000,-0.921655,0.000000,3.438517,0.000000,2.175121
LINE465,0.000000,4.055533,0.000000,2.492157,0.000000,-1.546872
LINE466,0.819006,-0.841114,0.597410,3.347417,0.217161,1.253223
LINE467,0.000000,-1.126938,0.000000,-1.126938,0.000000,2.070929
LINE468,0.000000,4.038314,0.000000,4.292645,0.000000,1.962191
LINE469,0.200564,-0.841133,0.000000,0.067581,0.000000,-1.511455
LINE470,0.000000,3.771451,0.000000,3.585268,0.471938,1.253223
LINE471,1.491704,-0.841153,1.612572,3.347452,1.060859,1.253218
LINE472,0.000000,-1.051565,0.000000,3.588318,0.000000,2.288567
LINE473,0.000000,3.944408,0.000000,2.312640,0.000000,-1.544787
LINE474,0.819006,-0.841114,0.597410,3.347417,0.217161,1.253223
LINE475,0.000000,1.381154,0.000000,1.381154,0.000000,4.263333
LINE476,0.200564,-0.841133,0.000000,0.056705,0.000000,-1.508202
LINE477,0.000000,3.934713,0.000000,3.591727,0.471938,1.253223
LINE478,1.491704,-0.841153,1.612572,3.347452,1.060859,1.253218
LINE479,0.000000,0.265789,0.000000,3.409645,0.000000,2.109054
LINE480,0.000000,3.852026,0.000000,2.569254,0.000000,-1.567980
LINE481,0.417863,-0.841109,0.597410,3.347417,0.217161,1.253223
LINE482,0.000000,0.379717,0.000000,3.066837,0.000000,1.944094
LINE483,0.401143,-0.841119,0.000000,0.682672,0.000000,4.684122
LINE484,0.200564,-0.841133,0.000000,0.144400,0.000000,-1.480139
LINE485,0.000000,3.812878,0.000000,3.602840,0.471938,1.253223
LINE486,1.491704,-0.841153,1.612572,3.347452,1.060859,1.253218
LINE487,0.000000,0.130603,0.000000,3.320825,0.000000,2.277379
LINE488,0.000000,-1.169290,0.000000,3.044781,0.000000,-1.479858
LINE489,0.417863,-0.841109,0.597410,3.347417,0.217161,1.253223
LINE490,0.000000,-1.227731,0.000000,3.683356,0.000000,-0.667501
LINE491,0.179679,-0.841119,0.000000,0.704049,0.000000,4.684091
LINE492,0.221465,-0.841118,0.000000,-1.139056,0.000000,2.162313
LINE493,0.200564,-0.841133,0.000000,0.147453,0.000000,-1.512905
LINE494,0.000000,3.462182,0.000000,4.355840,0.471938,1.253223
LINE495,1.491704,-0.841153,1.612572,3.347452,1.060859,1.253218
LINE496,0.000000,0.549788,0.000000,3.294734,0.000000,2.547636
LINE497,0.000000,-0.316009,0.000000,2.595657,0.000000,-1.508176
LINE498,0.417863,-0.841109,0.597410,3.347417,0.217161,1.253223
LINE499,0.000000,1.479023,0.000000,4.533270,0.000000,1.029378
LINE500,0.179679,-0.841119,0.000000,0.551586,0.000000,4.678102
LINE501,0.221465,-0.841118,0.000000,-1.182913,0.000000,-1.541248
LINE502,0.200564,-0.841133,0.000000,0.160309,0.000000,-1.524763
LINE503,0.000000,3.613417,0.000000,-1.476767,0.471938,1.253223
LINE504,1.491704,-0.841153,1.612572,3.347452,1.060859,1.253218
LINE505,0.000000,2.233739,0.000000,3.090741,0.000000,3.050018
LINE506,0.000000,4.649934,0.000000,1.494227,0.000000,3.223419
LINE507,0.417863,-0.841109,0.597410,3.347417,0.217161,1.253223
LINE508,0.000000,4.483161,0.000000,0.271642,0.000000,1.041378
LINE509,0.179679,-0.841119,0.000000,0.877377,0.000000,4.684491
LINE510,0.200564,-0.841133,0.000000,0.130868,0.000000,-1.503847
LINE511,0.000000,2.900414,0.000000,0.398786,0.471938,1.253223
LINE512,0.000000,0.397968,0.221395,3.347455,0.000000,1.590988
LINE513,1.491704,-0.841153,1.391176,3.347452,1.060859,1.253218
LINE514,0.000000,2.742883,0.000000,2.777409,0.000000,2.276233
LINE515,0.000000,-0.497026,0.597410,3.347417,0.217161,1.253223
LINE516,0.000000,2.739474,0.000000,-0.407272,0.000000,-0.887470
LINE517,0.417863,-0.841109,0.000000,3.010240,0.000000,1.574431
LINE518,0.179679,-0.841119,0.000000,0.642593,0.000000,4.561481
LINE519,0.200564,-0.841133,0.000000,0.083320,0.000000,-1.486164
LINE520,0.000000,2.331293,0.000000,-0.173814,0.471938,1.253223
LINE521,0.000000,0.841673,0.221395,3.347455,0.000000,1.833140
LINE522,1.491704,-0.841153,1.391176,3.347452,1.060859,1.253218
LINE523,0.000000,3.846138,0.000000,2.778376,0.000000,2.009878
LINE524,0.000000,-0.383266,0.597410,3.347417,0.217161,1.253223
LINE525,0.000000,-1.057339,0.000000,3.704919,0.000000,1.753976
LINE526,0.417863,-0.841109,0.000000,3.007294,0.000000,1.573775
LINE527,0.179679,-0.841119,0.000000,0.883271,0.000000,2.783206
LINE528,0.200564,-0.841133,0.000000,0.006453,0.000000,-1.445064
LINE529,0.000000,0.132219,0.000000,4.149486,0.471938,1.253223
LINE530,1.491704,-0.841153,1.391176,3.347452,1.060859,1.253218
LINE531,0.000000,-1.557492,0.000000,2.885669,0.000000,1.906587
LINE532,0.000000,-0.383023,0.597410,3.347417,0.217161,1.253223
LINE533,0.000000,-0.487889,0.000000,1.633925,0.000000,1.718530
LINE534,0.417863,-0.841109,0.000000,3.009707,0.000000,1.573837
LINE535,0.179679,-0.841119,0.000000,0.590174,0.000000,2.566439
LINE536,0.200564,-0.841133,0.000000,-0.025239,0.000000,-1.186277
LINE537,0.000000,0.320450,0.000000,-0.805195,0.238058,1.253224
LINE538,0.000000,2.524141,0.000000,1.212033,0.233880,1.253223
LINE539,1.491704,-0.841153,1.391176,3.347452,1.060859,1.253218
LINE540,0.000000,4.269454,0.000000,2.560608,0.000000,1.931993
LINE541,0.000000,-0.365123,0.597410,3.347417,0.217161,1.253223
LINE542,0.000000,0.423995,0.000000,3.183289,0.000000,1.333979
LINE543,0.417863,-0.841109,0.000000,3.017344,0.000000,1.570544
LINE544,0.179679,-0.841119,0.000000,-0.501050,0.000000,1.625057
LINE545,0.200564,-0.841133,0.000000,-0.056197,0.000000,-1.152642
LINE546,0.000000,-0.336184,0.000000,4.175359,0.238058,1.253224
LINE547,1.491704,-0.841153,1.391176,3.347452,1.060859,1.253218
LINE548,0.000000,-1.085594,0.000000,2.237963,0.000000,1.386715
LINE549,0.000000,-0.361015,0.597410,3.347417,0.217161,1.253223
LINE550,0.000000,-0.023811,0.000000,-0.023811,0.000000,1.719178
LINE551,0.229825,-0.841109,0.000000,2.964802,0.000000,1.577361
LINE552,0.188038,-0.841109,0.000000,0.764360,0.000000,1.618257
LINE553,0.179679,-0.841119,0.000000,4.214143,0.000000,-1.504491
LINE554,0.200564,-0.841133,0.000000,-0.100233,0.000000,-1.319707
LINE555,0.000000,2.585383,0.000000,1.708427,0.238058,1.253224
LINE556,1.491704,-0.841153,1.391176,3.347452,1.060859,1.253218
LINE557,0.000000,0.737246,0.000000,2.530139,0.000000,1.291001
LINE558,0.000000,-0.351393,0.597410,3.347417,0.217161,1.253223
LINE559,0.000000,1.140873,0.000000,0.781301,0.000000,1.340366
LINE560,0.229825,-0.841109,0.000000,2.855411,0.000000,1.577802
LINE561,0.188038,-0.841109,0.000000,0.712499,0.000000,1.549706
LINE562,0.179679,-0.841119,0.000000,3.029112,0.000000,2.674397
LINE563,0.200564,-0.841133,0.000000,-0.362432,0.000000,1.391181
LINE564,1.491704,-0.841153,1.391176,3.347452,1.060859,1.253218
LINE565,0.000000,4.486955,0.000000,1.297967,0.000000,4.509564
LINE566,0.000000,-0.452374,0.200529,3.347418,0.217161,1.253223
LINE567,0.000000,-1.457265,0.000000,-0.305833,0.000000,4.399679
LINE568,0.000000,2.715645,0.396882,3.347417,0.000000,1.435688
LINE569,0.229825,-0.841109,0.000000,3.058770,0.000000,1.575663
LINE570,0.200564,-0.841133,0.000000,0.094803,0.000000,-1.286372
LINE571,1.491704,-0.841153,1.391176,3.347452,1.060859,1.253218
LINE572,0.000000,0.299513,0.200529,3.347418,0.217161,1.253223
LINE573,0.000000,4.251572,0.000000,0.150952,0.000000,2.060441
LINE574,0.000000,2.738085,0.396882,3.347417,0.000000,1.442575
LINE575,0.229825,-0.841109,0.000000,2.901913,0.000000,1.630763
LINE576,0.200564,-0.841133,0.000000,0.217368,0.000000,-1.464032
LINE577,1.491704,-0.841153,1.391176,3.347452,1.060859,1.253218
LINE578,0.000000,2.662667,0.200529,3.347418,0.217161,1.253223
LINE579,0.000000,0.456122,0.000000,-0.473041,0.000000,4.415171
LINE580,0.000000,1.001787,0.000000,3.739182,0.000000,2.915616
LINE581,0.000000,2.725485,0.396882,3.347417,0.000000,1.445717
LINE582,0.229825,-0.841109,0.000000,3.062909,0.000000,1.626225
LINE583,0.200564,-0.841133,0.000000,0.155369,0.000000,1.398829
LINE584,0.000000,-0.985260,0.192156,3.347455,0.000000,1.589486
LINE585,1.491704,-0.841153,1.199020,3.347451,1.060859,1.253218
LINE586,0.000000,2.741603,0.200529,3.347418,0.217161,1.253223
LINE587,0.000000,-0.047712,0.000000,-0.047712,0.000000,-0.072669
LINE588,0.000000,0.684193,0.000000,3.674030,0.000000,2.238666
LINE589,0.000000,2.640850,0.396882,3.347417,0.000000,1.432792
LINE590,0.229825,-0.841109,0.000000,2.895057,0.000000,1.666323
LINE591,0.200564,-0.841133,0.000000,-0.030752,0.000000,1.456756
LINE592,0.000000,-1.061316,0.192156,3.347455,0.000000,1.588644
LINE593,1.491704,-0.841153,1.199020,3.347451,1.060859,1.253218
LINE594,0.000000,3.324571,0.200529,3.347418,0.000000,1.393779
LINE595,0.000000,0.989001,0.000000,0.989001,0.217161,1.253223
LINE596,0.000000,-0.067716,0.000000,3.555846,0.000000,1.938434
LINE597,0.000000,2.574979,0.396882,3.347417,0.000000,1.393146
LINE598,0.229825,-0.841109,0.000000,3.200891,0.000000,1.570273
LINE599,0.200564,-0.841133,0.000000,0.157347,0.000000,1.524078
LINE600,0.000000,-1.027897,0.192156,3.347455,0.000000,1.593335
LINE601,0.000000,2.469931,0.000000,0.040337,0.187942,1.253216
LINE602,1.491704,-0.841153,1.199020,3.347451,0.872917,1.253218
LINE603,0.000000,3.800811,0.200529,3.347418,0.000000,1.271329
LINE604,0.000000,2.574422,0.000000,2.574422,0.000000,1.091789
LINE605,0.000000,4.705307,0.000000,0.758064,0.000000,4.316866
LINE606,0.000000,-0.664272,0.000000,4.171959,0.217161,1.253223
LINE607,0.000000,1.370575,0.000000,1.370575,0.000000,4.586397
LINE608,0.000000,-0.435547,0.000000,3.631746,0.000000,1.874532
LINE609,0.000000,2.607369,0.396882,3.347417,0.000000,1.380775
LINE610,0.229825,-0.841109,0.000000,3.315839,0.000000,1.494013
LINE611,0.200564,-0.841133,0.000000,0.290325,0.000000,-1.392347
LINE612,0.000000,-1.067717,0.192156,3.347455,0.000000,1.589661
LINE613,0.000000,3.177423,0.000000,0.212529,0.187942,1.253216
LINE614,1.491704,-0.841153,1.199020,3.347451,0.872917,1.253218
LINE615,0.000000,3.537722,0.200529,3.347418,0.000000,1.586303
LINE616,0.000000,4.010291,0.000000,2.901020,0.000000,4.412502
LINE617,0.000000,0.528063,0.000000,2.486183,0.000000,4.318281
LINE618,0.000000,-0.094437,0.000000,3.118199,0.217161,1.253223
LINE619,0.000000,2.103432,0.000000,3.346869,0.000000,2.126859
LINE620,0.000000,2.595066,0.396882,3.347417,0.000000,1.324013
LINE621,0.200564,-0.841133,0.000000,-0.140442,0.000000,4.685802
LINE622,0.000000,-1.171326,0.192156,3.347455,0.000000,1.595895
LINE623,0.000000,2.743359,0.225579,3.347451,0.000000,1.648605
LINE624,1.491704,-0.841153,0.973441,3.347452,0.872917,1.253218
LINE625,0.000000,4.644870,0.200529,3.347418,0.000000,1.569425
LINE626,0.000000,2.350210,0.000000,3.595100,0.000000,2.035942
LINE627,0.000000,2.403572,0.396882,3.347417,0.000000,1.283042
LINE628,0.200564,-0.841133,0.000000,-0.819660,0.000000,4.259138
LINE629,0.000000,-1.356226,0.192156,3.347455,0.000000,1.579228
LINE630,0.000000,2.682544,0.225579,3.347451,0.000000,1.650042
LINE631,1.491704,-0.841153,0.973441,3.347452,0.872917,1.253218
LINE632,0.000000,-0.531166,0.200529,3.347418,0.000000,1.557556
LINE633,0.000000,1.444709,0.000000,3.268343,0.000000,1.886661
LINE634,0.000000,2.257183,0.396882,3.347417,0.000000,1.264275
LINE635,0.000000,-1.302478,0.192156,3.347455,0.000000,1.579087
LINE636,0.000000,2.477704,0.225579,3.347451,0.000000,1.670450
LINE637,1.491704,-0.841153,0.973441,3.347452,0.872917,1.253218
LINE638,0.000000,0.000000,0.200529,3.347418,0.000000,3.074074
LINE639,0.000000,2.192890,0.000000,3.657154,0.000000,1.873332
LINE640,0.000000,2.128236,0.396882,3.347417,0.000000,1.334494
LINE641,0.000000,-1.119191,0.192156,3.347455,0.000000,1.580172
LINE642,0.000000,1.911899,0.225579,3.347451,0.000000,1.635988
LINE643,1.491704,-0.841153,0.973441,3.347452,0.872917,1.253218
LINE644,0.000000,2.226345,0.000000,3.909988,0.000000,1.863859
LINE645,0.000000,1.988208,0.396882,3.347417,0.000000,1.170036
LINE646,0.000000,-1.058753,0.192156,3.347455,0.000000,1.584695
LINE647,0.000000,2.249992,0.225579,3.347451,0.000000,1.645742
LINE648,1.491704,-0.841153,0.973441,3.347452,0.872917,1.253218
LINE649,0.000000,2.434700,0.000000,-0.373659,0.000000,-1.559316
LINE650,0.000000,2.730687,0.396882,3.347417,0.000000,1.238237
LINE651,0.000000,-1.029453,0.192156,3.347455,0.000000,1.589699
LINE652,0.000000,2.556649,0.225579,3.347451,0.000000,1.644394
LINE653,1.491704,-0.841153,0.973441,3.347452,0.872917,1.253218
LINE654,0.000000,2.880477,0.000000,1.784713,0.000000,2.497808
LINE655,0.000000,4.461185,0.217241,3.347417,0.000000,1.494684
LINE656,0.000000,3.544484,0.179641,3.347417,0.000000,2.932183
LINE657,0.000000,-1.058623,0.192156,3.347455,0.000000,1.583391
LINE658,0.000000,2.467068,0.225579,3.347451,0.000000,1.628469
LINE659,1.491704,-0.841153,0.973441,3.347452,0.872917,1.253218
LINE660,0.000000,2.087425,0.000000,0.789419,0.000000,4.446952
LINE661,0.000000,-0.727279,0.217241,3.347417,0.000000,-1.545567
LINE662,0.000000,3.834637,0.179641,3.347417,0.000000,4.621188
LINE663,0.000000,-1.047708,0.192156,3.347455,0.000000,1.585839
LINE664,0.000000,2.789306,0.225579,3.347451,0.000000,1.591747
LINE665,1.491704,-0.841153,0.973441,3.347452,0.872917,1.253218
LINE666,0.000000,1.563871,0.000000,-0.078883,0.000000,4.640279
LINE667,0.000000,2.788800,0.217241,3.347417,0.000000,4.688974
LINE668,0.000000,-1.456590,0.179641,3.347417,0.000000,1.663432
LINE669,0.000000,-0.991261,0.192156,3.347455,0.000000,1.583590
LINE670,0.000000,2.975126,0.225579,3.347451,0.000000,1.626694
LINE671,0.584965,-0.841169,0.000000,-0.336166,0.000000,4.651078
LINE672,0.906739,-0.841142,0.973441,3.347452,0.872917,1.253218
LINE673,0.000000,-0.468153,0.000000,4.189297,0.000000,-1.539241
LINE674,0.000000,-0.801959,0.217241,3.347417,0.000000,1.610585
LINE675,0.000000,1.255234,0.179641,3.347417,0.000000,4.707947
LINE676,0.000000,-0.784825,0.192156,3.347455,0.000000,1.578852
LINE677,0.000000,4.422866,0.225579,3.347451,0.000000,1.542081
LINE678,0.584965,-0.841169,0.000000,-0.336921,0.000000,4.669213
LINE679,0.906739,-0.841142,0.973441,3.347452,0.872917,1.253218
LINE680,0.000000,-0.290676,0.000000,3.054375,0.000000,4.445306
LINE681,0.000000,0.759703,0.217241,3.347417,0.000000,4.537606
LINE682,0.000000,-0.876451,0.192156,3.347455,0.000000,1.594003
LINE683,0.000000,-0.390958,0.225579,3.347451,0.000000,4.325245
LINE684,0.584965,-0.841169,0.000000,-0.357033,0.000000,4.663259
LINE685,0.906739,-0.841142,0.973441,3.347452,0.872917,1.253218
LINE686,0.000000,-0.629780,0.192156,3.347455,0.000000,1.589527
LINE687,0.000000,-0.835115,0.225579,3.347451,0.000000,-1.389827
LINE688,0.584965,-0.841169,0.000000,-0.212761,0.000000,4.675343
LINE689,0.000000,0.347016,0.000000,0.358283,0.467779,1.253221
LINE690,0.906739,-0.841142,0.973441,3.347452,0.405138,1.253216
LINE691,0.000000,-0.615332,0.192156,3.347455,0.000000,1.594531
LINE692,0.584965,-0.841169,0.000000,-0.117489,0.000000,4.702219
LINE693,0.000000,0.368668,0.000000,0.370041,0.258949,1.253221
LINE694,0.000000,-0.521973,0.000000,3.033084,0.208830,1.253221
LINE695,0.000000,-0.502615,0.121147,3.347446,0.000000,1.162664
LINE696,0.906739,-0.841142,0.852294,3.347452,0.405138,1.253216
LINE697,0.000000,-0.544640,0.192156,3.347455,0.000000,1.578718
LINE698,0.584965,-0.841169,0.000000,-0.131763,0.000000,4.699289
LINE699,0.000000,0.400365,0.000000,0.482039,0.258949,1.253221
LINE700,0.000000,4.537800,0.000000,2.235966,0.208830,1.253221
LINE701,0.000000,2.669135,0.121147,3.347446,0.000000,1.320941
LINE702,0.906739,-0.841142,0.852294,3.347452,0.405138,1.253216
LINE703,0.000000,-0.532202,0.192156,3.347455,0.000000,1.576474
LINE704,0.584965,-0.841169,0.000000,-0.123043,0.000000,4.710919
LINE705,0.000000,0.503239,0.000000,0.578515,0.258949,1.253221
LINE706,0.906739,-0.841142,0.852294,3.347452,0.405138,1.253216
LINE707,0.000000,1.046858,0.000000,2.361430,0.000000,4.175317
LINE708,0.000000,-0.539007,0.192156,3.347455,0.000000,1.578663
LINE709,0.584965,-0.841169,0.000000,-0.102879,0.000000,-1.570011
LINE710,0.000000,0.575302,0.000000,0.249555,0.258949,1.253221
LINE711,0.480541,-0.841129,0.852294,3.347452,0.405138,1.253216
LINE712,0.426198,-0.841157,0.000000,0.310721,0.000000,1.191481
LINE713,0.000000,1.180471,0.000000,2.292036,0.000000,4.453146
LINE714,0.000000,-0.544179,0.192156,3.347455,0.000000,1.586526
LINE715,0.584965,-0.841169,0.000000,-0.102495,0.000000,-1.570384
LINE716,0.000000,1.171334,0.000000,0.438660,0.258949,1.253221
LINE717,0.480541,-0.841129,0.852294,3.347452,0.405138,1.253216
LINE718,0.426198,-0.841157,0.000000,0.208138,0.000000,1.209728
LINE719,0.000000,1.068422,0.000000,2.316397,0.000000,-1.488140
LINE720,0.000000,-1.228859,0.192156,3.347455,0.000000,1.580910
LINE721,0.584965,-0.841169,0.000000,-0.105601,0.000000,-1.569047
LINE722,0.000000,1.758720,0.000000,0.298395,0.258949,1.253221
LINE723,0.480541,-0.841129,0.405269,3.347451,0.405138,1.253216
LINE724,0.000000,4.167530,0.447025,3.347454,0.000000,1.549533
LINE725,0.426198,-0.841157,0.000000,0.297185,0.000000,1.324955
LINE726,0.000000,0.952243,0.000000,2.332098,0.000000,-1.078108
LINE727,0.000000,-0.738165,0.192156,3.347455,0.000000,1.589971
LINE728,0.584965,-0.841169,0.000000,-0.110217,0.000000,-1.570263
LINE729,0.000000,1.296037,0.000000,0.413823,0.258949,1.253221
LINE730,0.480541,-0.841129,0.405269,3.347451,0.405138,1.253216
LINE731,0.000000,4.172587,0.447025,3.347454,0.000000,1.550702
LINE732,0.426198,-0.841157,0.000000,0.346750,0.000000,1.411582
LINE733,0.000000,1.240819,0.000000,2.265476,0.000000,-1.412813
LINE734,0.000000,-0.754484,0.192156,3.347455,0.000000,1.566985
LINE735,0.584965,-0.841169,0.000000,-0.080413,0.000000,4.707988
LINE736,0.000000,2.532081,0.000000,0.543252,0.258949,1.253221
LINE737,0.480541,-0.841129,0.405269,3.347451,0.405138,1.253216
LINE738,0.000000,4.194700,0.447025,3.347454,0.000000,1.535803
LINE739,0.426198,-0.841157,0.000000,2.607275,0.000000,1.428935
LINE740,0.000000,0.914428,0.000000,2.448852,0.000000,-1.072373
LINE741,0.000000,-0.689795,0.192156,3.347455,0.000000,1.544064
LINE742,0.584965,-0.841169,0.000000,-0.099077,0.000000,4.709494
LINE743,0.000000,2.061993,0.000000,-0.265880,0.258949,1.253221
LINE744,0.480541,-0.841129,0.405269,3.347451,0.405138,1.253216
LINE745,0.000000,-0.114981,0.221424,3.347454,0.000000,-1.511015
LINE746,0.000000,3.957412,0.225601,3.347454,0.000000,1.489792
LINE747,0.426198,-0.841157,0.000000,2.642073,0.000000,1.361003
LINE748,0.000000,1.282699,0.000000,2.254131,0.000000,-0.999232
LINE749,0.000000,-0.768192,0.192156,3.347455,0.000000,-1.517136
LINE750,0.584965,-0.841169,0.000000,-0.022468,0.000000,4.710289
LINE751,0.000000,3.997093,0.000000,1.020422,0.258949,1.253221
LINE752,0.480541,-0.841129,0.405269,3.347451,0.000000,4.676812
LINE753,0.000000,-0.523018,0.000000,3.604036,0.405138,1.253216
LINE754,0.000000,4.417286,0.221424,3.347454,0.000000,-1.556993
LINE755,0.000000,3.779611,0.225601,3.347454,0.000000,1.456745
LINE756,0.426198,-0.841157,0.000000,1.365927,0.000000,1.431831
LINE757,0.000000,1.175593,0.000000,1.653664,0.000000,-1.494739
LINE758,0.000000,3.717616,0.192156,3.347455,0.000000,4.672911
LINE759,0.584965,-0.841169,0.000000,0.077226,0.000000,4.710692
LINE760,0.000000,3.096231,0.000000,-1.045606,0.258949,1.253221
LINE761,0.480541,-0.841129,0.405269,3.347451,0.000000,4.652040
LINE762,0.000000,-0.518245,0.000000,3.603221,0.405138,1.253216
LINE763,0.000000,3.502260,0.225601,3.347454,0.000000,1.435628
LINE764,0.426198,-0.841157,0.000000,2.267681,0.000000,1.447417
LINE765,0.000000,1.433809,0.000000,0.935826,0.000000,4.592797
LINE766,0.000000,-0.733482,0.192156,3.347455,0.000000,1.627563
LINE767,0.584965,-0.841169,0.000000,0.115036,0.000000,4.703743
LINE768,0.000000,4.311190,0.000000,3.422594,0.258949,1.253221
LINE769,0.480541,-0.841129,0.405269,3.347451,0.000000,4.641880
LINE770,0.000000,3.633536,0.000000,3.411662,0.187951,1.253216
LINE771,0.000000,-0.474427,0.000000,3.612238,0.217188,1.253216
LINE772,0.000000,3.200049,0.225601,3.347454,0.000000,1.480663
LINE773,0.426198,-0.841157,0.000000,2.468498,0.000000,1.460447
LINE774,0.000000,2.119782,0.000000,0.610890,0.000000,-1.470716
LINE775,0.000000,0.134933,0.192156,3.347455,0.000000,4.065801
LINE776,0.584965,-0.841169,0.000000,0.167179,0.000000,4.705510
LINE777,0.000000,-0.095560,0.000000,3.811094,0.258949,1.253221
LINE778,0.480541,-0.841129,0.405269,3.347451,0.000000,4.636651
LINE779,0.000000,-0.012389,0.000000,4.420783,0.187951,1.253216
LINE780,0.000000,-0.634654,0.000000,3.629204,0.217188,1.253216
LINE781,0.000000,3.320107,0.225601,3.347454,0.000000,1.518562
LINE782,0.426198,-0.841157,0.000000,2.527472,0.000000,1.457224
LINE783,0.000000,1.505827,0.000000,1.505827,0.000000,-0.909291
LINE784,0.000000,0.693379,0.192156,3.347455,0.000000,4.671884
LINE785,0.584965,-0.841169,0.000000,0.140970,0.000000,4.706603
LINE786,0.480541,-0.841129,0.405269,3.347451,0.000000,4.627826
LINE787,0.000000,-0.412349,0.000000,3.551105,0.217188,1.253216
LINE788,0.000000,3.906310,0.225601,3.347454,0.000000,1.171894
LINE789,0.426198,-0.841157,0.000000,2.753043,0.000000,1.440284
LINE790,0.000000,1.169274,0.000000,2.012286,0.000000,-1.159320
LINE791,0.438724,-0.841168,0.000000,0.163997,0.000000,4.706092
LINE792,0.146241,-0.841169,0.000000,2.030137,0.000000,-1.540055
LINE793,0.480541,-0.841129,0.405269,3.347451,0.000000,4.622361
LINE794,0.000000,-0.518788,0.000000,3.677958,0.217188,1.253216
LINE795,0.000000,4.337199,0.225601,3.347454,0.000000,-0.763280
LINE796,0.426198,-0.841157,0.000000,3.000599,0.000000,1.446589
LINE797,0.000000,2.405711,0.000000,1.558385,0.000000,-1.227745
LINE798,0.438724,-0.841168,0.000000,0.056796,0.000000,4.688838
LINE799,0.146241,-0.841169,0.000000,0.467007,0.000000,1.645143
LINE800,0.480541,-0.841129,0.000000,4.453893,0.000000,4.621722
LINE801,0.000000,2.640386,0.405269,3.347451,0.000000,4.590635
LINE802,0.000000,-0.355614,0.000000,3.791045,0.217188,1.253216
LINE803,0.000000,4.580715,0.225601,3.347454,0.000000,1.169969
LINE804,0.426198,-0.841157,0.000000,3.277384,0.000000,1.464457
LINE805,0.000000,2.738347,0.000000,1.376085,0.000000,-1.433286
LINE806,0.438724,-0.841168,0.000000,0.070265,0.000000,4.710173
LINE807,0.146241,-0.841169,0.000000,0.917257,0.000000,4.645732
LINE808,0.480541,-0.841129,0.000000,-0.786147,0.000000,4.636101
LINE809,0.000000,2.698477,0.405269,3.347451,0.000000,4.619936
LINE810,0.000000,2.653642,0.000000,0.387526,0.000000,4.381315
LINE811,0.000000,-0.714579,0.000000,3.373051,0.217188,1.253216
LINE812,0.000000,3.307335,0.225601,3.347454,0.000000,1.580499
LINE813,0.426198,-0.841157,0.000000,2.856801,0.000000,1.444717
LINE814,0.000000,2.913758,0.000000,-1.311456,0.000000,4.175775
LINE815,0.438724,-0.841168,0.000000,0.153750,0.000000,4.707338
LINE816,0.146241,-0.841169,0.000000,-1.017457,0.000000,4.625674
LINE817,0.480541,-0.841129,0.000000,-1.315903,0.000000,4.648856
LINE818,0.000000,2.636451,0.405269,3.347451,0.000000,4.621711
LINE819,0.000000,1.527837,0.000000,1.527837,0.000000,1.465140
LINE820,0.000000,0.441716,0.000000,-1.244502,0.217188,1.253216
LINE821,0.426198,-0.841157,0.000000,0.740818,0.000000,1.416374
LINE822,0.000000,2.873125,0.000000,3.660108,0.000000,4.259719
LINE823,0.438724,-0.841168,0.000000,0.210130,0.000000,-1.555451
LINE824,0.480541,-0.841129,0.000000,-0.169538,0.000000,4.647451
LINE825,0.000000,2.692798,0.405269,3.347451,0.000000,4.630965
LINE826,0.000000,4.341606,0.000000,4.341606,0.000000,-0.876289
LINE827,0.000000,1.197913,0.000000,-1.372410,0.217188,1.253216
LINE828,0.426198,-0.841157,0.000000,0.152199,0.000000,1.291349
LINE829,0.000000,3.821981,0.000000,2.743625,0.000000,1.899291
LINE830,0.438724,-0.841168,0.000000,0.110379,0.000000,-1.546413
LINE831,0.480541,-0.841129,0.000000,0.085954,0.000000,4.656919
LINE832,0.000000,2.908989,0.405269,3.347451,0.000000,4.665769
LINE833,0.000000,2.474008,0.000000,-0.608447,0.000000,2.484316
LINE834,0.000000,4.335969,0.000000,0.213408,0.217188,1.253216
LINE835,0.426198,-0.841157,0.000000,0.016053,0.000000,1.325502
LINE836,0.438724,-0.841168,0.000000,0.051436,0.000000,4.678990
LINE837,0.480541,-0.841129,0.000000,0.035504,0.000000,4.667238
LINE838,0.000000,2.976807,0.405269,3.347451,0.000000,4.658926
LINE839,0.000000,0.868060,0.000000,0.194499,0.000000,4.579363
LINE840,0.426198,-0.841157,0.000000,-0.222721,0.000000,1.338419
LINE841,0.438724,-0.841168,0.000000,0.104335,0.000000,4.492160
LINE842,0.480541,-0.841129,0.000000,0.206589,0.000000,4.662184
LINE843,0.000000,2.658582,0.405269,3.347451,0.000000,-1.549575
LINE844,0.000000,4.067754,0.000000,3.233018,0.000000,4.644635
LINE845,0.000000,1.487499,0.000000,4.308903,0.000000,-1.165281
LINE846,0.426198,-0.841157,0.000000,0.147475,0.000000,1.325611
LINE847,0.438724,-0.841168,0.000000,4.655040,0.000000,4.183408
LINE848,0.480541,-0.841129,0.000000,0.005188,0.000000,4.682379
LINE849,0.000000,2.610426,0.405269,3.347451,0.000000,-1.565484
LINE850,0.000000,3.955216,0.000000,3.217122,0.000000,-1.556243
LINE851,0.000000,-0.543962,0.000000,-0.543962,0.000000,2.635121
LINE852,0.426198,-0.841157,0.000000,2.944518,0.000000,1.217495
LINE853,0.438724,-0.841168,0.000000,-1.491501,0.000000,4.665294
LINE854,0.480541,-0.841129,0.000000,0.036015,0.000000,4.674577
LINE855,0.000000,2.211904,0.405269,3.347451,0.000000,-1.553970
LINE856,0.000000,3.779485,0.000000,3.223436,0.000000,-1.509425
LINE857,0.000000,3.011517,0.000000,-0.180799,0.000000,-0.935142
LINE858,0.426198,-0.841157,0.000000,3.419693,0.000000,1.262760
LINE859,0.221451,-0.841169,0.000000,0.132340,0.000000,1.907281
LINE860,0.217273,-0.841168,0.000000,0.082773,0.000000,1.588055
LINE861,0.480541,-0.841129,0.000000,0.039549,0.000000,4.681437
LINE862,0.000000,2.502737,0.405269,3.347451,0.000000,-1.551119
LINE863,0.000000,4.290502,0.000000,3.282303,0.000000,-1.560436
LINE864,0.000000,-0.388288,0.000000,2.290907,0.000000,-1.029424
LINE865,0.426198,-0.841157,0.000000,3.592283,0.000000,1.393759
LINE866,0.480541,-0.841129,0.000000,0.024182,0.000000,4.684195
LINE867,0.000000,3.074074,0.405269,3.347451,0.000000,-0.067519
LINE868,0.000000,-0.949438,0.000000,3.247751,0.000000,-1.474965
LINE869,0.000000,3.291368,0.000000,4.377842,0.000000,4.701403
LINE870,0.426198,-0.841157,0.000000,3.090621,0.000000,1.370779
LINE871,0.480541,-0.841129,0.000000,0.004640,0.000000,4.680141
LINE872,0.000000,4.056868,0.208902,3.347451,0.000000,1.533664
LINE873,0.000000,-0.067519,0.196367,3.347450,0.000000,-1.417489
LINE874,0.000000,0.173698,0.000000,2.984604,0.000000,4.620716
LINE875,0.000000,3.430409,0.000000,4.332501,0.000000,1.287514
LINE876,0.426198,-0.841157,0.000000,-0.750190,0.000000,-0.802044
LINE877,0.480541,-0.841129,0.000000,-0.005756,0.000000,4.676582
LINE878,0.000000,4.644870,0.208902,3.347451,0.000000,-0.067519
LINE879,0.000000,-0.067519,0.196367,3.347450,0.000000,1.543813
LINE880,0.000000,3.614133,0.000000,3.614133,0.000000,1.069199
LINE881,0.000000,3.232812,0.000000,3.710403,0.000000,1.113894
LINE882,0.426198,-0.841157,0.000000,0.017268,0.000000,1.057969
LINE883,0.480541,-0.841129,0.000000,-0.003245,0.000000,4.677153
LINE884,0.000000,0.396129,0.208902,3.347451,0.000000,4.666046
LINE885,0.000000,0.000000,0.196367,3.347450,0.000000,0.000000
LINE886,0.426198,-0.841157,0.000000,1.860936,0.000000,1.698643
LINE887,0.250717,-0.841129,0.000000,-0.075798,0.000000,4.688331
LINE888,0.229824,-0.841130,0.000000,3.199199,0.000000,1.673971
LINE889,0.000000,-0.067519,0.208902,3.347451,0.000000,1.602620
LINE890,0.426198,-0.841157,0.000000,3.452945,0.000000,4.309036
LINE891,0.250717,-0.841129,0.000000,-0.029876,0.000000,4.681573
LINE892,0.229824,-0.841130,0.000000,3.221890,0.000000,2.944965
LINE893,0.000000,3.074074,0.208902,3.347451,0.000000,3.074074
LINE894,0.225635,-0.841156,0.000000,3.023776,0.000000,-1.560653
LINE895,0.200563,-0.841158,0.000000,2.073757,0.000000,-1.451039
LINE896,0.250717,-0.841129,0.000000,0.048495,0.000000,4.705096
LINE897,0.229824,-0.841130,0.000000,-0.300577,0.000000,1.506550
LINE898,0.000000,0.000000,0.208902,3.347451,0.000000,3.074074
LINE899,0.225635,-0.841156,0.000000,2.825561,0.000000,-1.513531
LINE900,0.250717,-0.841129,0.000000,-0.132880,0.000000,1.521314
LINE901,0.250717,-0.841129,0.000000,-0.018185,0.000000,-1.378214
LINE902,0.250717,-0.841129,0.000000,3.895271,0.000000,1.513314
LINE903,0.250717,-0.841129,0.000000,3.232074,0.000000,1.590537
LINE904,0.250717,-0.841129,0.000000,3.530340,0.000000,1.362216
LINE905,0.250717,-0.841129,0.000000,-0.785177,0.000000,0.995465
